66
H24 C42
H 28.620148 21.711799 53.132517
C 28.920793 21.730827 54.178296
C 28.201711 22.407536 55.089892
C 30.096435 20.998360 54.547948
H 27.300005 22.947576 54.792645
C 28.570383 22.434330 56.464807
C 30.833780 20.251850 53.623917
C 30.498208 21.021097 55.904411
C 27.835322 23.129560 57.428151
C 29.735753 21.737627 56.864746
C 30.479946 20.204108 52.168371
C 31.994583 19.611344 54.034486
C 31.661295 20.314478 56.308562
H 26.929849 23.653858 57.126492
C 28.241660 23.140124 58.736677
C 30.138667 21.754018 58.217399
C 29.710642 19.161989 51.551013
C 31.040373 21.174717 51.393364
H 32.574186 19.046653 53.303404
C 32.402063 19.643765 55.351236
C 32.026543 20.339359 57.695713
H 27.658976 23.697895 59.470567
C 29.369363 22.469440 59.140427
C 31.304036 21.024018 58.593470
C 29.680966 19.139256 50.120539
C 28.968732 18.150820 52.252411
C 30.955909 21.171799 49.991572
H 31.614383 21.965295 51.877343
H 33.305139 19.115217 55.652694
H 32.912041 19.778421 57.998575
H 29.671035 22.469250 60.187008
H 31.591099 21.036225 59.645867
C 28.991560 18.109267 49.447823
C 30.315584 20.159077 49.378626
C 28.313568 17.188378 51.532561
C 28.786108 18.148850 53.737239
H 31.446940 21.966484 49.432781
C 28.338679 17.160785 50.125754
H 28.998523 18.117768 48.355513
H 30.281684 20.099695 48.289725
H 27.732253 16.436033 52.066281
C 27.659546 18.763294 54.314483
C 29.722056 17.549767 54.571014
H 27.794346 16.374864 49.603868
C 26.593479 19.315404 53.536869
C 27.570517 18.871636 55.730316
C 29.631885 17.633641 55.943523
H 30.576508 17.041921 54.127551
C 25.559370 19.961689 54.110302
H 26.639249 19.199685 52.455991
C 26.493035 19.579551 56.331427
C 28.586363 18.320975 56.550451
H 30.407695 17.195455 56.566898
H 24.757308 20.373413 53.493345
C 25.477189 20.145719 55.523125
C 26.449662 19.750201 57.733621
C 28.507606 18.500658 57.961470
C 24.448788 20.865391 56.130455
C 25.396150 20.473523 58.295421
C 27.495185 19.185354 58.526078
H 29.305787 18.079096 58.576220
H 23.667728 21.310096 55.513498
C 24.419112 21.014947 57.497348
H 25.367501 20.606402 59.378305
H 27.457062 19.329928 59.605953
H 23.604837 21.582017 57.947630