120
H46 C74
H 38.146219 43.614701 46.232404
C 38.234473 44.565999 45.711016
C 37.172448 44.986726 44.916113
C 39.388375 45.319514 45.838708
C 35.970272 44.105614 44.806258
C 37.289239 46.198902 44.252196
H 40.204404 44.951682 46.458305
C 39.477136 46.528241 45.208029
C 35.546708 43.545220 43.618593
C 35.334926 43.695578 46.040933
H 36.477492 46.554767 43.622955
C 38.430683 46.967935 44.411080
H 40.353899 47.160614 45.341438
C 34.336746 42.739976 43.641481
C 36.264587 43.584361 42.320896
C 34.666878 42.422362 46.040596
C 35.369185 44.442885 47.242900
H 38.494687 47.936911 43.918157
C 34.014401 42.055433 44.802189
C 33.484946 42.788256 42.425069
C 35.542036 43.293473 41.138948
C 37.650515 43.729719 42.223802
C 34.674664 41.684711 47.254981
C 35.084213 43.790069 48.462367
C 35.635470 45.906290 47.181274
C 32.955490 41.013962 44.776951
C 32.094347 42.677902 42.463484
C 34.090705 43.131390 41.198479
C 36.233443 43.157254 39.937956
C 38.304548 43.593500 41.010389
H 38.234254 43.926911 43.115784
C 34.283801 40.249412 47.312726
C 35.071755 42.341665 48.445760
C 34.744739 44.419435 49.725484
C 34.889560 46.690325 46.300501
C 36.597833 46.528241 47.970117
C 31.848306 41.067415 45.586695
C 33.047367 39.956972 43.871110
H 31.604263 42.445014 43.404601
C 31.315736 42.888265 41.348925
C 33.266935 43.340029 40.069603
H 35.672832 42.868301 39.051064
C 37.592898 43.305543 39.865687
H 39.390896 43.674031 40.976427
C 33.315209 39.815580 48.212992
C 34.884889 39.310363 46.484831
C 35.512449 41.669192 49.652886
C 34.243313 45.817834 49.828042
C 34.800799 43.648677 50.872592
H 34.136686 46.204395 45.682511
C 35.085770 48.057687 46.206487
H 37.211641 45.931978 48.645429
C 36.790928 47.899052 47.888005
C 30.848569 40.108710 45.485998
H 31.747985 41.869969 46.316566
C 32.094347 38.996543 43.738733
H 33.939842 39.910831 43.246910
H 30.230665 42.827029 41.431496
C 31.901251 43.222777 40.147435
H 33.728107 43.681757 39.144984
H 38.114244 43.173083 38.918429
C 32.966391 38.480980 48.300058
H 32.819430 40.548418 48.851723
C 34.523613 37.967142 46.572074
H 35.653244 39.627824 45.782336
C 36.077721 40.284587 49.629874
C 35.518678 42.388221 50.838833
C 33.176616 46.283392 49.065132
C 34.758754 46.659287 50.823203
C 34.096934 43.926288 52.147102
H 34.498060 48.648187 45.505418
C 36.034118 48.661188 47.012131
H 37.541121 48.375557 48.520158
H 29.975899 40.154328 46.134595
C 30.974704 39.096551 44.539167
H 32.215519 38.178359 43.029611
H 31.283732 43.413804 39.270097
H 32.204099 38.165676 49.012549
C 33.567479 37.568831 47.488765
H 35.006665 37.239684 45.920973
C 35.630798 39.339676 50.557192
C 37.136632 39.944902 48.802574
C 36.277045 42.058882 52.056941
H 32.755285 45.663892 48.274454
C 32.609787 47.519708 49.334093
C 34.182581 47.893879 51.081350
H 35.610057 46.318249 51.413187
C 32.868286 44.609107 52.194704
C 34.576559 43.326235 53.330320
H 36.191627 49.736660 46.953541
H 30.177814 38.360294 44.445902
H 33.294590 36.516283 47.565041
H 34.787167 39.588532 51.200260
C 36.252130 38.103360 50.663279
C 37.768864 38.718932 48.937696
H 37.491057 40.650187 48.051314
C 35.847252 42.589963 53.284126
C 37.511922 41.377787 52.030048
H 31.762869 47.859529 48.741267
C 33.097198 48.307709 50.356107
H 34.586445 48.532292 51.867406
H 32.459958 45.057004 51.293628
C 32.142621 44.684975 53.367176
C 33.818191 43.422795 54.496325
H 35.884353 37.368843 51.380806
C 37.334399 37.810231 49.872499
H 38.622091 38.488203 48.301421
C 36.650778 42.426155 54.424966
H 37.882531 40.979933 51.090193
C 38.278075 41.232947 53.156278
H 32.618764 49.258828 50.578908
H 31.181745 45.198272 53.366248
C 32.619130 44.091820 54.524350
H 34.173825 42.921213 55.395063
H 37.840198 36.851793 49.979527
H 36.329576 42.874186 55.361886
C 37.846725 41.751958 54.365972
H 39.236365 40.721850 53.087542
H 32.035480 44.138483 55.442548
H 38.467202 41.662122 55.257693