36
H12 C24
C 11.150625 15.144961 36.636389
C 10.756245 13.768986 36.728198
C 10.563750 15.986198 35.644548
C 12.131880 15.658828 37.534915
C 9.770295 13.244969 35.829672
C 11.343120 12.927178 37.718533
C 9.596580 15.441450 34.771608
C 10.981605 17.342014 35.579830
C 12.718755 14.817020 38.525250
C 12.530955 17.034803 37.443106
C 9.399390 11.887148 35.942552
C 9.211590 14.116797 34.864922
C 10.944045 11.551203 37.810342
C 12.324375 13.441045 38.617059
H 9.134076 16.085059 34.023438
H 10.523702 17.991383 34.831058
C 11.929995 17.844446 36.448255
C 13.704705 15.341037 39.423776
C 13.507515 17.519935 38.346147
H 8.642133 11.489570 35.265722
C 9.967485 11.066071 36.907301
H 8.454521 13.728180 34.185233
C 11.545005 10.741560 38.805193
C 12.911250 12.599808 39.608900
H 12.225217 18.892979 36.375410
C 14.263410 14.469209 40.388525
C 14.075610 16.698858 39.310896
H 13.807713 18.565302 38.284740
H 9.667287 10.020703 36.968708
H 11.249783 9.693027 38.878038
C 12.493395 11.243992 39.673618
C 13.878420 13.144556 40.481840
H 15.020479 14.857826 41.068215
H 14.832867 17.096436 39.987726
H 12.951298 10.594623 40.422390
H 14.340924 12.500947 41.230010