36
H12 C24
H 10.551362 32.886366 53.746898
C 11.047733 33.629522 53.122329
C 10.688687 33.671493 51.760558
C 11.984313 34.451339 53.714653
H 9.926668 32.985607 51.390411
C 11.318341 34.578606 50.958646
H 12.193173 34.348578 54.779821
C 12.654500 35.413962 52.924888
C 11.317589 34.984776 49.508534
C 12.274515 35.411255 51.596686
C 13.674553 36.382001 53.269637
C 10.711357 34.654424 48.330953
C 12.293870 36.047587 49.418205
C 12.848865 36.283166 50.673305
C 14.222562 37.220065 52.343385
H 14.031927 36.425867 54.299027
C 9.716025 33.693155 47.871581
C 11.118215 35.395008 47.153593
C 12.711061 36.769216 48.313505
C 13.826521 37.207880 50.961737
H 15.003537 37.917188 52.655449
H 9.189332 32.991158 48.511830
C 9.541085 33.833961 46.542275
C 10.410662 34.902188 46.039175
C 12.068739 36.410433 47.076736
C 13.734510 37.752148 48.573227
C 14.263184 37.960648 49.824572
H 8.857439 33.253815 45.927203
C 10.653090 35.458641 44.808811
C 12.294359 36.953347 45.783871
H 14.123584 38.343802 47.745475
H 15.046424 38.706918 49.946262
H 10.132895 35.112855 43.915466
C 11.603273 36.486251 44.705010
H 13.043336 37.735630 45.652022
H 11.808091 36.910293 43.721779