62
H26 C36
H 61.584424 14.929033 20.100453
C 60.892057 15.718464 20.381005
C 59.557694 15.735168 19.823586
C 61.205046 16.720704 21.271592
H 59.325072 14.921739 19.137225
C 58.633724 16.709568 20.081472
C 60.270518 17.700672 21.584740
H 62.192791 16.753165 21.733785
C 57.329479 16.715136 19.423943
C 59.077228 17.722944 20.976865
H 60.524574 18.486762 22.295448
C 56.890377 15.712896 18.570997
C 56.399016 17.678400 19.672218
H 58.399829 18.542498 21.217132
C 55.732026 15.696192 17.939096
H 57.573159 14.889333 18.353556
C 55.124244 17.667264 19.083566
H 56.616611 18.503578 20.349930
H 55.517439 14.876582 17.255058
C 54.788767 16.659456 18.203389
H 54.432622 18.463488 19.340651
C 53.424242 16.709568 17.581900
C 53.015865 15.735168 16.697719
C 52.504662 17.700672 17.790932
C 51.801718 15.735168 16.070624
H 53.685007 14.905592 16.465622
C 51.203148 17.700672 17.242323
H 52.727605 18.531139 18.460635
H 51.576475 14.929757 15.376734
C 50.859589 16.742976 16.345329
H 50.541592 18.517498 17.516628
C 49.505141 16.665024 15.690202
C 49.161583 15.707328 14.793207
C 48.563012 17.672832 15.964907
C 47.860069 15.707328 14.244599
H 49.823138 14.890502 14.518903
C 47.348865 17.672832 15.337811
H 48.788255 18.478243 16.658796
H 47.637126 14.876861 13.574896
C 46.940488 16.698432 14.453630
H 46.679724 18.502408 15.569909
C 45.575963 16.748544 13.832141
C 45.240486 15.740736 12.951965
C 44.632704 17.711808 14.096434
C 43.965714 15.729600 12.363312
H 45.932097 14.944456 12.694960
C 43.474353 17.695104 13.464533
H 44.847280 18.531362 14.780553
H 43.748119 14.904478 11.685600
C 43.035252 16.692864 12.611587
H 42.791286 18.518556 13.682135
C 41.731006 16.698432 11.954058
C 41.287502 15.685056 11.058665
C 40.807036 17.672832 12.211944
C 40.094212 15.707328 10.450791
H 41.964798 14.865112 10.819119
C 39.472674 17.689536 11.654526
H 41.039909 18.486261 12.898386
H 39.839367 14.920124 9.741925
C 39.159685 16.687296 10.763938
H 38.777991 18.477297 11.934757
H 38.171859 16.654890 10.302306