22
H10 C12
C 14.077440 16.552013 24.883246
H 14.057080 16.219991 23.845509
C 13.087620 16.156877 25.764761
C 15.071772 17.379154 25.332960
H 12.284822 15.496565 25.438271
C 13.101720 16.588259 27.102591
H 15.865264 17.726333 24.671871
C 15.080232 17.811101 26.690588
H 12.295256 16.248486 27.747181
C 14.096052 17.404587 27.563618
H 15.890249 18.466142 27.000674
C 14.103948 17.848179 29.004212
C 13.119768 17.441665 29.877243
C 15.098280 18.664507 29.465240
H 12.309751 16.786623 29.567157
C 13.128228 17.873611 31.234871
H 15.904744 19.004279 28.820650
C 15.112380 19.095889 30.803069
H 12.334736 17.526433 31.895960
C 14.122560 18.700753 31.684585
H 15.915178 19.756201 31.129560
H 14.142920 19.032774 32.722322