52
H18 C34
H 9.496105 42.155340 62.180660
C 9.281466 43.199403 61.954765
C 8.820819 44.035758 62.968989
C 9.502272 43.644361 60.671618
H 8.599328 43.648405 63.960931
C 8.683767 45.393036 62.682138
C 9.251010 45.003820 60.330982
H 9.898390 42.960323 59.927853
H 8.402582 46.070258 63.483529
C 8.965485 45.880763 61.409235
C 9.448974 45.493789 58.986366
C 9.041625 47.346079 61.155679
C 9.349992 44.694171 57.826155
C 9.734499 46.887772 58.814767
C 8.740872 48.256047 62.172465
C 9.528921 47.792851 59.926316
C 8.710416 43.369707 57.862011
C 9.772569 45.159571 56.573741
C 10.141848 47.363452 57.559793
H 8.315249 47.944975 63.121123
C 8.980713 49.633412 61.936837
C 9.783990 49.196650 59.721423
C 8.679960 42.595813 56.773513
H 8.208653 43.053923 58.769947
C 9.753534 44.304256 55.428897
C 10.240830 46.527464 56.437999
C 10.461636 48.814947 57.426612
H 8.740301 50.335127 62.735410
C 9.513693 50.091692 60.763820
C 10.267479 49.635432 58.492060
H 8.168908 41.636493 56.842408
C 9.220554 42.985540 55.536466
C 10.217988 44.762548 54.168800
C 10.739547 46.940989 55.167658
H 10.830420 49.209260 56.485381
H 9.691861 51.156096 60.614760
H 10.503779 50.697228 58.388332
C 9.239589 42.125177 54.366011
C 10.252251 43.930493 53.064935
C 10.758582 46.134547 54.084282
H 11.141642 47.946397 55.064442
C 8.702802 40.790725 54.401867
C 9.715464 42.612193 53.134087
H 10.659486 44.291854 52.121911
H 11.161325 46.476592 53.132038
H 8.291684 40.388541 55.324658
C 8.710416 40.025531 53.272390
C 9.730692 41.775211 51.968753
H 8.287192 39.019755 53.316186
C 9.193905 40.503381 52.050711
H 10.131912 42.168437 51.036998
H 9.159566 39.865814 51.168387