32
H12 C20
H 48.746506 30.097247 26.429905
C 47.900921 29.524219 26.800959
C 46.622804 29.855118 26.360179
C 48.096701 28.475143 27.709165
C 45.529899 29.161689 26.795408
H 46.500705 30.675763 25.653600
C 46.970368 27.768026 28.175481
C 49.433959 28.100664 28.191025
H 44.531975 29.424834 26.445338
C 45.670207 28.104002 27.695842
C 47.108447 26.690725 29.119216
C 49.572055 27.063302 29.134760
C 50.594374 28.742858 27.728040
C 44.551622 27.347304 28.148834
C 45.967289 25.967185 29.552224
C 48.387947 26.332444 29.616620
C 50.860809 26.748601 29.591083
H 50.506711 29.545841 26.996923
C 51.836961 28.398040 28.176591
H 43.574436 27.595853 27.731704
C 44.681083 26.330338 29.014850
C 46.111451 24.919540 30.457099
C 48.476145 25.277836 30.522605
H 50.995233 25.962381 30.329750
C 51.973377 27.392625 29.115885
H 52.714771 28.926890 27.805870
H 43.815642 25.732803 29.303522
H 45.227156 24.358544 30.763868
C 47.355690 24.587672 30.947841
H 49.445372 24.971247 30.907871
H 52.955873 27.118843 29.496932
H 47.475375 23.764792 31.651756