46
H18 C28
C 21.172817 17.200425 40.789740
H 20.169866 17.610846 40.902776
C 21.706965 16.445094 41.787979
C 21.925846 17.492189 39.617916
H 21.128635 16.238855 42.685686
C 23.031358 15.916649 41.685802
H 21.493729 18.118726 38.839004
C 23.187096 17.013634 39.482997
C 23.603251 15.117634 42.697697
C 23.778919 16.196461 40.495550
H 23.776891 17.250649 38.596971
C 22.820238 14.798962 43.931222
C 24.900570 14.588249 42.530529
C 25.044226 15.633501 40.336279
C 22.167566 13.551440 44.036031
C 22.739018 15.731985 44.981289
C 25.537721 13.800391 43.538969
C 25.624497 14.830673 41.313786
H 25.592573 15.825571 39.414714
C 21.353424 13.273684 45.187453
C 22.308401 12.532908 43.044209
C 21.935546 15.436438 46.137811
C 23.453509 16.964948 44.954964
H 25.004366 13.613773 44.468596
C 26.787330 13.291058 43.353208
C 26.933280 14.267204 41.165704
C 20.723416 11.992885 45.281238
C 21.228904 14.233908 46.188488
C 21.707230 11.322505 43.188343
H 22.927033 12.737665 42.172334
C 21.916851 16.375356 47.214534
C 23.407299 17.831650 46.005031
H 24.064821 17.191570 44.083582
H 27.246432 12.687247 44.133107
C 27.495472 13.533303 42.153413
H 27.467517 14.446266 40.232622
H 20.098346 11.783050 46.151468
C 20.892206 11.054670 44.321007
H 20.599866 14.019513 47.053453
H 21.842597 10.553261 42.430985
H 21.322999 16.140460 48.099901
C 22.637603 17.522543 47.157769
H 23.959791 18.769827 45.967023
H 28.491368 13.110601 42.030175
H 20.404267 10.086365 44.410844
H 22.627197 18.220806 47.991307