52
H22 C30
H 13.798205 15.196164 22.770348
C 14.777032 15.670554 22.830972
C 15.768061 15.095559 23.579385
C 15.003715 16.841816 22.146379
H 15.578143 14.175752 24.130977
C 17.010816 15.689742 23.625059
H 14.201786 17.287554 21.557155
C 16.253891 17.458679 22.178856
H 17.803788 15.245138 24.227686
C 17.260250 16.854726 22.923248
C 16.510242 18.710673 21.417865
H 18.238689 17.332936 22.979850
C 15.799727 19.904907 21.659122
C 17.449636 18.689582 20.387573
C 14.816893 20.041368 22.772204
C 16.064986 21.006861 20.852972
H 17.956223 17.748968 20.170029
C 17.714896 19.791535 19.581423
C 13.564590 20.593364 22.528473
C 15.142266 19.697026 24.080870
H 15.558400 21.947475 21.070516
C 17.004380 20.985770 19.822681
C 18.697730 19.655075 18.468341
H 13.287864 20.860244 21.510037
C 12.661878 20.796523 23.548351
C 14.243041 19.911111 25.110440
H 16.120237 19.270468 24.301198
C 17.260731 22.237764 19.061689
C 18.372356 19.999416 17.159675
C 19.950032 19.103079 18.712073
H 11.685997 21.222522 23.320807
C 12.994456 20.464509 24.844851
H 14.513537 19.634349 26.127123
C 16.254373 22.841717 18.317298
C 18.510908 22.854627 19.094166
H 17.394385 20.425975 16.939348
C 19.271581 19.785332 16.130105
C 20.852744 18.899920 17.692194
H 20.226759 18.836198 19.730508
H 12.287352 20.621740 25.659146
H 15.275934 22.363507 18.260695
C 16.503806 24.006701 17.615487
H 19.312837 22.408889 19.683391
C 18.737590 24.025889 18.409573
H 19.001086 20.062094 15.113423
C 20.520167 19.231934 16.395694
H 21.828625 18.473921 17.919739
H 15.710835 24.451305 17.012859
C 17.746562 24.600883 17.661160
H 19.716417 24.500279 18.470197
H 21.227270 19.074703 15.581400
H 17.936479 25.520691 17.109568