30
H12 C18
H 16.332680 15.332794 30.314590
C 17.297150 15.782474 30.552931
C 18.148000 16.136453 29.642469
C 17.598750 16.074066 31.879299
C 17.798950 16.031030 28.083719
C 19.452550 16.805835 29.921328
C 16.493100 15.661033 32.876756
C 18.948150 16.636427 32.323805
C 16.692000 15.475030 27.639213
C 18.773300 16.532129 27.160147
C 20.373600 17.186759 28.886928
C 19.846450 17.095304 31.340648
H 15.570425 15.220654 32.513167
C 16.807050 15.963977 34.180481
C 18.857800 16.896572 33.652556
C 16.463200 15.395439 26.262794
H 15.933450 15.067992 28.306210
C 18.650450 16.486638 25.681242
C 19.956300 17.027268 27.628488
H 21.340150 17.610760 29.142429
H 20.788950 17.588537 31.570052
H 16.098810 15.712654 34.974157
C 17.988100 16.537560 34.491516
H 19.735560 17.424056 34.062622
H 15.539875 14.944433 25.902065
C 17.394000 15.862089 25.310621
H 19.411210 16.867035 25.008286
H 20.662720 17.343357 26.853403
H 18.153525 16.780926 35.545341
H 17.144530 15.754138 24.253222