48
H16 C32
H 16.543750 19.871322 41.871319
C 17.203562 20.286491 42.628911
C 16.752824 20.265972 43.964180
C 18.431384 20.814856 42.251122
H 15.771587 19.847640 44.179340
C 17.551057 20.778093 44.964289
C 18.929196 20.837085 40.870875
C 19.264906 21.354336 43.281609
C 17.464879 20.935406 46.428956
C 18.795877 21.322702 44.591535
C 18.232231 20.346338 39.765032
C 20.219903 21.393664 40.634232
C 20.555614 21.910915 43.044966
C 16.493777 20.562643 47.333569
C 18.655717 21.580900 46.876731
C 19.509157 21.811740 45.701574
H 17.241265 19.920397 39.903157
C 18.741892 20.383956 38.443861
C 20.688932 21.425298 39.324306
C 21.053425 21.933144 41.664718
C 21.252578 22.401662 44.150809
H 15.588805 20.050180 47.003948
C 16.675494 20.852474 48.686292
C 18.815110 21.857907 48.214685
C 20.742917 22.364044 45.471980
H 18.127970 19.980244 37.638772
C 19.975652 20.936260 38.214267
C 21.933752 21.969907 38.951551
C 22.281247 22.461509 41.286929
H 22.243544 22.827603 44.012684
H 15.914522 20.549733 49.405115
C 17.823283 21.497969 49.117620
H 19.712903 22.367720 48.569985
H 21.356839 22.767756 46.277069
C 20.829092 21.167100 37.039109
C 22.019930 21.812594 37.486884
C 22.731985 22.482028 39.951660
H 22.941059 22.876678 42.044521
H 17.957465 21.724790 50.176134
C 20.669699 20.890093 35.701155
C 22.991032 22.185357 36.582272
H 23.713222 22.900360 39.736500
H 19.771906 20.380280 35.345856
C 21.661526 21.250031 34.798221
C 22.809315 21.895526 35.229548
H 23.896004 22.697820 36.911893
H 21.527344 21.023210 33.739706
H 23.570287 22.198267 34.510725