52
H20 C32
H 16.316540 26.361826 61.374113
C 17.319649 25.952985 61.284395
C 17.642706 24.761520 61.951215
C 18.263974 26.614660 60.510884
C 16.586354 23.981487 62.746550
C 18.868430 24.232856 61.846949
H 17.996928 27.539427 60.001191
C 19.506799 26.087124 60.375095
C 16.391077 22.616431 62.467698
C 15.768053 24.621745 63.626752
H 19.153762 23.310457 62.355187
C 19.908942 24.909185 61.000694
C 20.506010 26.774725 59.516716
C 15.405880 21.916430 63.049650
H 17.034053 22.136350 61.731286
C 14.752619 23.866511 64.322670
C 15.902323 26.071343 63.946826
C 21.138426 24.388412 60.852781
H 20.228026 27.709749 59.031271
C 21.709462 26.229153 59.395476
H 15.251089 20.872179 62.774435
C 14.551880 22.494691 64.002596
C 13.958500 24.422228 65.350785
C 14.938623 27.037366 63.789214
C 17.107035 26.691311 64.514229
H 21.420497 23.465110 61.357382
C 22.023498 25.041069 60.055022
H 22.477827 26.707430 58.787336
C 13.533846 21.774401 64.669416
C 13.017048 23.683903 65.973958
H 14.134321 25.453066 65.650490
H 13.946540 26.868847 63.376513
C 15.479064 28.313372 64.218403
C 16.792782 28.058622 64.666991
C 18.323819 26.257333 64.880374
H 23.021991 24.626254 59.913656
H 13.372010 20.732066 64.382805
C 12.787159 22.359426 65.610238
H 12.428265 24.124756 66.776810
C 15.024955 29.605160 64.332369
C 17.646264 29.015627 65.181049
H 18.632577 25.216013 64.789444
C 19.254462 27.217720 65.421104
H 11.998807 21.806978 66.124538
H 14.013903 29.880877 64.026602
C 15.874070 30.579073 64.848851
C 17.157167 30.305160 65.270766
C 18.925529 28.524162 65.564167
H 20.238700 26.874483 65.733176
H 15.506155 31.602697 64.927657
H 17.774083 31.102777 65.683225
H 19.657772 29.218638 65.978323