52
H22 C30
H 12.918285 12.300855 53.493787
C 12.132536 11.952811 52.823984
C 11.125724 11.131297 53.282753
C 12.144814 12.360896 51.495738
C 10.153513 10.714743 52.406723
H 11.099493 10.819252 54.326344
C 11.165907 11.950805 50.602231
H 12.949762 13.016547 51.169575
H 9.354537 10.054982 52.744464
C 10.164117 11.113847 51.085031
C 11.185440 12.396855 49.186601
H 9.367429 10.760418 50.435982
C 10.198719 12.014699 48.312755
C 12.152628 13.208921 48.644816
H 9.379094 11.374263 48.631053
C 10.192580 12.415113 46.993247
C 12.139233 13.605301 47.325309
H 12.985313 13.558685 49.253450
H 9.363634 12.062627 46.379808
C 11.150838 13.231214 46.451463
H 12.959696 14.245414 47.007011
C 11.141350 13.674340 45.033648
C 10.163559 13.299253 44.137956
C 12.151511 14.485873 44.559587
H 9.343208 12.656811 44.455599
C 10.172489 13.722967 42.825003
C 12.160441 14.909587 43.246633
H 12.963045 14.815812 45.202300
H 9.360955 13.393029 42.182289
C 11.182650 14.534501 42.350941
H 12.980792 15.552030 42.928990
C 11.173162 14.977626 40.933126
C 10.184767 14.603540 40.059280
C 12.131420 15.793728 40.391342
H 9.364304 13.963427 40.377579
C 10.171373 14.999920 38.739773
C 12.125281 16.194142 39.071834
H 12.960366 16.146214 41.004782
H 9.338687 14.650155 38.131139
C 11.138560 15.811986 38.197989
H 12.944906 16.834578 38.753536
C 11.158093 16.258036 36.782358
C 10.179186 15.847945 35.888851
C 12.159883 17.094993 36.299558
H 9.374238 15.192294 36.215014
C 10.191464 16.256029 34.560605
C 12.170487 17.494097 34.977866
H 12.956571 17.448423 36.948607
H 9.405715 15.907985 33.890802
C 11.198277 17.077544 34.101836
H 12.969463 18.153859 34.640125
H 11.224507 17.389588 33.058245