68
H20 C48
C 9.327854 25.318961 76.921639
H 9.108664 24.256595 76.814728
C 9.018995 25.964657 78.086490
C 9.928712 26.000021 75.836573
H 8.540762 25.428316 78.905077
C 9.304479 27.350208 78.249250
C 10.259030 25.354579 74.611086
C 10.223010 27.378417 75.973802
C 8.999452 28.043500 79.446015
C 9.909935 28.057102 77.189715
H 10.032521 24.292200 74.507366
C 10.848009 26.033310 73.586656
C 10.830382 28.087425 74.904692
H 8.517923 27.473242 80.237156
C 9.276122 29.384382 79.621540
C 10.203466 29.441656 77.342900
H 11.111306 25.517032 72.662753
C 11.145755 27.415990 73.691971
C 11.121230 29.475146 75.045113
C 8.949253 30.083632 80.882132
C 9.895757 30.113091 78.555622
C 10.811605 30.143415 76.270599
C 11.748146 28.157057 72.648392
C 11.718256 30.184141 73.979194
C 8.353760 29.430707 81.938476
C 9.264243 31.474505 81.012978
C 10.210747 31.503965 78.686468
C 11.112034 31.517647 76.411020
H 11.998835 27.642040 71.720660
C 12.022134 29.487750 72.779239
C 11.993394 31.569666 74.148337
H 8.095866 28.376333 81.855820
C 8.047966 30.069950 83.157580
C 8.956534 32.145941 82.225700
C 9.883878 32.203215 79.947060
C 10.806240 32.156890 77.630124
C 11.704461 32.208086 75.316379
H 12.492435 30.032694 71.962566
H 12.455150 32.114433 73.324644
C 7.455539 29.379511 84.252221
C 8.348395 31.444182 83.298001
C 9.250065 33.530495 82.378885
C 10.160548 33.544097 80.122585
H 11.064134 33.211264 77.712780
H 11.924686 33.269285 75.429354
H 7.235314 28.318312 84.139246
C 7.166606 30.017930 85.420263
C 8.038770 32.112451 84.523487
C 8.936990 34.209180 83.594798
C 9.855521 34.237388 81.319350
H 10.642077 34.114355 79.331444
H 6.704850 29.473164 86.243956
C 7.441744 31.403455 85.589406
C 8.329618 33.500171 84.663908
C 9.231288 35.587576 83.732027
C 10.141005 35.622940 81.482110
C 7.137866 32.099847 86.789362
C 8.014245 34.171607 85.876629
C 8.900970 36.233018 84.957514
C 9.832146 36.268636 82.646961
H 10.619238 36.159280 80.663523
H 6.667565 31.554902 87.606034
C 7.411854 33.430539 86.920208
C 8.311991 35.554286 85.981944
H 9.127479 37.295397 85.061234
H 10.051336 37.331002 82.753872
H 7.161165 33.945557 87.847940
H 8.048694 36.070565 86.905847