44
H16 C28
C 6.740829 12.638457 41.826704
C 5.817477 11.824875 41.113975
C 6.710855 14.007989 41.608673
H 7.465080 12.216191 42.513653
C 4.918543 12.406245 40.236976
C 5.820203 10.379868 41.310157
C 5.820655 14.605092 40.738275
H 7.419830 14.631999 42.152573
C 3.915486 11.602053 39.505226
C 4.906142 13.843204 40.012813
C 4.883776 9.602430 40.661249
C 6.746804 9.751492 42.155245
H 5.853913 15.686009 40.617077
C 2.938626 12.221571 38.585468
C 3.988765 10.222699 39.767272
C 3.929281 14.462722 39.093056
C 4.802612 8.202492 40.833379
C 6.744822 8.348406 42.314171
H 7.509988 10.319583 42.679339
C 2.024112 11.459683 37.860006
C 2.926224 13.658530 38.361306
H 3.273644 9.560758 39.277919
C 3.856003 15.842076 38.831010
H 4.043534 7.625188 40.313373
C 5.749087 7.617966 41.656932
H 7.489262 7.866585 42.943743
H 1.990854 10.378766 37.981205
C 1.133912 12.056786 36.989609
C 2.027290 14.239900 37.484307
C 2.960992 16.462345 37.937033
H 4.571123 16.504016 39.320362
H 5.728799 6.533756 41.785833
H 0.424937 11.432776 36.445709
C 1.103939 13.426318 36.771577
C 2.024565 15.684907 37.288125
C 3.042155 17.862283 37.764902
H 0.379687 13.848584 36.084628
C 1.097964 16.313283 36.443037
C 2.095681 18.446809 36.941350
H 3.801234 18.439587 38.284909
H 0.334779 15.745191 35.918943
C 1.099945 17.716369 36.284111
H 2.115968 19.531019 36.812448
H 0.355506 18.198189 35.654539