26
H12 C14
C 12.118276 15.178123 31.615355
C 11.584090 14.520138 32.747820
C 11.584090 16.468578 31.354402
C 13.031724 14.606828 30.813765
C 10.516221 15.443202 33.364619
C 12.092120 13.261074 33.016265
C 10.523766 16.738961 32.438171
C 12.061940 17.119001 30.264389
C 13.565910 13.316374 31.074719
C 13.565910 15.264813 29.681301
H 9.530592 14.961247 33.356628
H 10.739553 15.698415 34.408309
H 11.743189 12.683329 33.871669
C 13.088060 12.665951 32.164732
H 9.538641 16.902995 31.982938
H 10.758818 17.641492 33.019761
H 11.700786 18.111837 29.995944
C 13.057880 16.523878 29.412856
C 14.626234 13.045991 29.990950
C 14.633779 14.341750 29.064501
H 13.449264 11.673115 32.433177
H 13.406811 17.101696 28.557452
H 14.391182 12.143459 29.409360
H 15.611360 12.881957 30.446183
H 14.410447 14.086536 28.020811
H 15.619408 14.823705 29.072492