60
H20 C40
H 26.072945 18.890003 46.295132
C 26.092504 18.911149 45.205040
C 25.082229 19.630386 44.522007
C 27.082051 18.288913 44.504226
C 24.066639 20.321108 45.237007
C 25.089458 19.672049 43.098627
H 27.880364 17.760316 45.022129
C 27.090342 18.331559 43.107517
C 23.093462 21.019327 44.573646
H 24.089812 20.288900 46.327855
C 24.059411 20.409120 42.425240
C 26.122375 18.996117 42.377763
H 27.906301 17.828440 42.593965
H 22.313858 21.554859 45.110842
C 23.100797 21.057049 43.175234
C 24.063344 20.441337 40.960057
C 26.117804 19.047333 40.907472
H 22.316197 21.627247 42.681921
C 23.113872 21.120876 40.221602
C 25.077871 19.753718 40.224628
C 27.104374 18.429791 40.163721
C 23.102392 21.166692 38.838511
H 22.323319 21.666883 40.733451
C 25.082548 19.786887 38.792925
H 27.922246 17.911446 40.656276
C 27.107032 18.474807 38.778928
H 22.315028 21.740784 38.357305
C 24.075356 20.508072 38.086059
C 26.114721 19.126529 38.060145
H 27.927349 17.986186 38.259891
C 24.066852 20.541690 36.619930
C 26.125457 19.159892 36.603852
C 23.112490 21.234948 35.901336
C 25.095410 19.863043 35.895661
C 27.110965 18.540924 35.843076
H 22.320980 21.778658 36.410537
C 23.121526 21.268811 34.519002
C 25.092009 19.896978 34.465850
H 27.928624 18.019097 36.333362
C 27.114366 18.575738 34.465850
H 22.335543 21.844145 34.032877
C 24.080352 20.625928 33.762199
C 26.131835 19.232465 33.739879
H 27.934152 18.081633 33.951163
C 24.094596 20.671792 32.294935
C 26.129390 19.245625 32.274695
C 23.134069 21.365140 31.577665
C 25.110399 19.969576 31.578800
C 27.087579 18.581707 31.529809
H 22.345536 21.911935 32.087055
C 23.158518 21.403958 30.174524
C 25.116139 20.005440 30.164499
H 27.880577 18.030280 32.027093
C 27.093213 18.607540 30.128181
H 22.393690 21.984044 29.659648
C 24.116175 20.736270 29.475413
C 26.122694 19.311169 29.454227
H 27.867821 18.062366 29.595525
H 24.142218 20.753265 28.386078
H 26.125245 19.357405 28.365271