76
H34 C42
H 26.274458 44.682408 32.684782
C 27.121534 44.684122 33.373382
C 28.002564 43.585940 33.373125
C 27.317949 45.714681 34.229041
C 27.836410 42.484927 32.502385
C 29.093680 43.575869 34.282149
H 26.613425 46.547192 34.257915
C 28.422596 45.741543 35.083281
H 27.010225 42.505544 31.790969
C 28.685464 41.427484 32.541442
C 29.920344 42.417079 34.380115
C 29.347589 44.710897 35.097332
H 28.537928 46.590419 35.747261
H 28.550816 40.596297 31.849620
C 29.709674 41.384316 33.490942
C 30.884678 42.322198 35.475533
C 30.566645 44.709368 35.925791
H 30.335026 40.495820 33.556683
C 31.630074 41.022667 35.572468
C 31.116193 43.391751 36.290329
C 31.285450 45.833967 36.230647
C 31.007602 39.878997 36.094912
C 32.918024 40.922784 35.039583
C 32.012964 43.364828 37.454968
C 30.959318 47.170500 35.642205
C 32.470811 45.758671 37.068130
C 29.634565 39.966857 36.688511
C 31.686952 38.669442 36.072741
C 33.556966 39.681630 35.049766
C 33.615455 42.128426 34.465320
C 32.150542 42.270629 38.294643
C 32.746565 44.540020 37.756859
C 30.251027 48.130413 36.376823
C 31.389061 47.455432 34.342733
C 33.275372 46.854903 37.313175
H 29.321175 39.011552 37.121883
H 28.881349 40.272403 35.950025
H 29.597407 40.724799 37.480362
H 31.177983 37.786526 36.465766
C 32.955020 38.546605 35.560351
H 34.564477 39.611647 34.632378
H 32.976814 42.665048 33.749779
H 34.540776 41.838245 33.955122
H 33.882537 42.857764 35.244539
H 31.545286 41.383238 38.136479
C 33.042287 42.297048 39.369565
C 33.723102 44.526019 38.784603
C 29.812217 47.863334 37.793468
C 29.912351 49.325129 35.757315
C 31.024451 48.663066 33.768599
C 32.232674 46.466487 33.577307
H 33.071438 47.790838 36.793825
C 34.321617 46.791183 38.237410
C 33.658085 37.209329 35.583941
H 33.114566 41.427535 40.021299
C 33.835179 43.382064 39.587669
C 34.527959 45.674099 38.974735
H 29.314806 46.888292 37.899941
H 29.124790 48.642011 38.145373
H 30.670255 47.844229 38.481681
H 29.339482 50.064008 36.322813
C 30.265423 49.596177 34.449078
H 31.354377 48.882806 32.751554
H 31.667819 45.557385 33.327493
H 33.101088 46.140211 34.166523
H 32.595880 46.899680 32.638764
H 34.958634 47.665991 38.379719
H 33.016203 36.417912 35.171064
H 33.915664 36.913993 36.612329
H 34.591818 37.227814 35.010193
H 34.571175 43.378478 40.391250
H 35.313714 45.636406 39.729333
C 29.840152 50.880788 33.776076
H 28.944546 50.726260 33.153861
H 29.604059 51.663075 34.505280
H 30.626794 51.251306 33.110034