70
H28 C42
H 8.431459 18.952534 28.969316
C 8.976426 19.558279 28.243730
C 8.977101 19.185795 26.903322
C 9.676425 20.681214 28.653076
H 8.435873 18.297587 26.581349
C 9.673831 19.931038 25.953915
C 10.383229 21.420626 27.722014
H 9.686581 20.973934 29.702813
C 9.765270 19.414485 24.551130
C 10.390282 21.047944 26.383900
H 10.941888 22.301759 28.034470
C 8.772365 19.639857 23.554482
C 10.849464 18.560466 24.292451
H 10.951384 21.634383 25.658658
C 7.723366 20.595223 23.728196
C 8.816898 18.857364 22.310620
C 10.901299 17.802690 23.077026
C 11.881370 18.342445 25.272818
C 6.687964 20.694531 22.788076
C 7.742972 21.647756 24.798114
C 7.823993 19.082736 21.313972
C 9.865897 17.901998 22.136906
C 12.003716 16.890768 22.888979
H 11.827809 18.888952 26.209957
C 12.905730 17.476549 25.043492
C 5.585547 21.606453 22.976123
C 6.739799 19.936755 21.572651
C 6.951870 21.553337 25.940155
C 8.475270 22.808856 24.598601
C 7.915432 18.566183 19.911187
C 9.846291 16.849465 21.066988
H 12.056334 16.320200 21.965944
C 12.970365 16.746499 23.831507
H 13.677050 17.325942 25.796941
C 4.618898 21.750722 22.033595
H 5.532928 22.177021 23.899158
C 5.707893 20.154776 20.592284
H 6.366704 20.652155 26.112379
C 6.921707 22.592278 26.859750
C 8.442888 23.851491 25.514756
H 9.097619 22.899834 23.708703
C 7.198981 17.449277 19.481202
C 8.612161 19.311426 18.961780
C 9.113993 15.688365 21.266501
C 10.637393 16.943884 19.924947
H 13.805553 16.067211 23.663641
H 3.783710 22.430010 22.201461
C 4.683533 21.020672 20.821610
H 5.761454 19.608270 19.655146
H 6.296806 22.497181 27.746208
C 7.659565 23.739734 26.651064
H 9.033014 24.748176 25.334621
H 6.637879 16.862838 20.206444
C 7.206034 17.076595 18.143088
C 8.612837 18.938942 17.621372
H 9.153390 20.199634 19.283753
H 8.491644 15.597387 22.156399
C 9.146374 14.645730 20.350346
C 10.667556 15.904943 19.005352
H 11.222559 17.845066 19.752724
H 3.912212 21.171279 20.068161
H 7.634028 24.549468 27.382039
H 6.647374 16.195462 17.830632
C 7.912838 17.816007 17.212026
H 9.157804 19.544687 16.895786
H 8.556248 13.749045 20.530481
C 9.929698 14.757487 19.214038
H 11.292457 16.000040 18.118894
H 7.902682 17.523287 16.162289
H 9.955235 13.947753 18.483063