26
H10 C16
H 15.147375 29.759050 44.964388
C 14.240120 29.290443 44.583331
C 13.492280 28.490589 45.401219
C 13.884896 29.513758 43.243267
C 12.320664 27.868562 44.918347
H 13.800951 28.329035 46.435651
C 12.744440 28.942063 42.722963
H 14.528163 30.143555 42.629570
C 11.441952 27.012863 45.610838
C 11.996600 28.124318 43.580154
C 12.046456 28.934471 41.446533
C 10.332656 26.518294 45.004440
H 11.641376 26.766384 46.655751
C 10.843680 27.611436 42.953169
C 10.887304 28.158346 41.583160
C 12.339360 29.577532 40.243096
H 9.656546 25.868642 45.558059
C 10.014824 26.797185 43.653147
C 10.014824 28.002337 40.523835
C 11.460648 29.405450 39.187514
H 13.232156 30.192915 40.137350
H 9.102335 26.387366 43.223989
H 9.105201 27.411083 40.610677
C 10.338888 28.643071 39.316655
H 11.666491 29.895173 38.234122
H 9.663651 28.522446 38.468821