46
H16 C30
C 12.720500 26.737451 39.308899
C 11.793500 26.878687 38.357494
C 13.029500 25.659586 39.974883
C 13.544500 28.050683 39.515037
C 10.969500 25.633016 38.103786
C 11.845000 28.268784 37.897648
C 12.205500 24.346354 39.768745
C 13.956500 25.518351 40.926289
C 12.720500 28.894357 38.611202
C 14.471500 27.975448 40.466443
C 10.042500 25.566813 37.104810
C 11.278500 24.421589 38.817340
C 10.969500 28.945375 37.057240
C 13.029500 23.502680 40.672580
C 13.905000 24.128253 41.386135
C 14.780500 26.764021 41.179997
C 12.823500 30.297604 38.420921
C 15.244000 29.133118 40.720151
C 9.218500 24.520705 36.803532
H 9.876773 26.489003 36.546811
C 10.506000 23.263919 38.563632
H 10.190974 28.390179 36.538724
C 11.021000 30.315102 36.882816
C 12.926500 22.099433 40.862862
C 14.780500 23.451662 42.226543
C 15.707500 26.830224 42.178972
C 12.051000 30.941196 37.580513
H 13.587039 30.849313 38.968613
H 15.070291 30.036693 40.142806
C 16.171000 29.112362 41.687413
H 8.455939 24.514336 36.032576
C 9.579000 23.284675 37.596370
H 10.679709 22.360344 39.140976
H 10.330179 30.842870 36.229834
H 12.162961 21.547724 40.315169
C 13.699000 21.455842 41.703270
C 14.729000 22.081936 42.400967
H 15.559026 24.006859 42.745059
H 15.873227 25.908034 42.736972
C 16.531500 27.876333 42.480251
H 12.175321 32.021655 37.465393
H 16.760675 30.011396 41.884988
H 8.989325 22.385642 37.398795
H 13.574679 20.375382 41.818390
H 15.419821 21.554168 43.053948
H 17.294061 27.882701 43.251206