38
H14 C24
C 13.592673 26.751798 27.003568
C 12.711490 25.793026 27.578552
C 13.440202 27.093257 25.627718
C 14.607335 27.377886 27.750083
C 11.733725 25.199329 26.829134
H 12.829343 25.548307 28.634451
C 12.395697 26.479414 24.873771
C 14.311618 28.040699 25.016617
H 14.715366 27.133852 28.805634
C 15.445652 28.287303 27.155821
H 11.061661 24.464382 27.269285
C 11.565519 25.547260 25.479066
C 12.213926 26.857071 23.499082
C 14.114654 28.388144 23.591525
C 15.304576 28.617020 25.800992
H 16.234538 28.764324 27.731502
H 10.767680 25.094062 24.896069
H 11.383857 26.382759 22.976243
C 13.015346 27.758875 22.862431
C 14.916074 29.289948 22.954874
H 16.001220 29.338770 25.380235
C 12.818382 28.106320 21.437339
C 14.734303 29.667605 21.580185
H 15.746143 29.764260 23.477713
C 11.825424 27.529999 20.652964
C 13.689798 29.053761 20.826238
C 15.564481 30.599759 20.974890
H 11.128780 26.808249 21.073721
C 11.684348 27.859716 19.298135
C 13.537327 29.395221 19.450387
C 15.396275 30.947690 19.624822
H 16.362320 31.052957 21.557887
H 10.895462 27.382695 18.722454
C 12.522665 28.769133 18.703872
C 14.418510 30.353993 18.875404
H 16.068339 31.682637 19.184671
H 12.414634 29.013166 17.648322
H 14.300657 30.598712 17.819505