44
H16 C28
C 9.795258 26.133692 52.908760
C 8.990058 27.010518 52.159400
H 10.297703 25.306375 52.416943
C 9.984480 26.358245 54.230000
C 8.659926 26.871509 50.759280
C 8.454600 28.186748 52.790440
C 9.424866 27.459624 54.880760
H 10.635565 25.691964 54.794584
C 8.140572 27.951502 50.029640
C 8.780706 25.609735 50.009920
C 7.782258 29.181197 52.060800
C 8.696160 28.347143 54.190560
H 9.604868 27.605904 55.947020
C 7.681608 29.127732 50.700120
C 8.140572 27.951502 48.570360
C 8.732394 24.358654 50.680400
C 8.780706 25.609735 48.590080
H 7.382396 30.036851 52.604875
H 8.264492 29.223862 54.675278
C 7.097838 30.197032 49.970480
C 7.681608 29.127732 47.899880
C 8.659926 26.871509 47.840720
C 8.700186 23.161038 49.990200
H 8.648814 24.338979 51.762239
C 8.732394 24.358654 47.919600
H 6.663191 31.025098 50.531908
C 7.097838 30.197032 48.629520
C 7.782258 29.181197 46.539200
C 8.990058 27.010518 46.440600
H 8.625906 22.222300 50.540388
C 8.700186 23.161038 48.609800
H 8.648814 24.338979 46.837761
H 6.663191 31.025098 48.068092
H 7.382396 30.036851 45.995125
C 8.454600 28.186748 45.809560
C 9.795258 26.133692 45.691240
H 8.625906 22.222300 48.059612
C 8.696160 28.347143 44.409440
H 10.297703 25.306375 46.183057
C 9.984480 26.358245 44.370000
H 8.264492 29.223862 43.924722
C 9.424866 27.459624 43.719240
H 10.635565 25.691964 43.805416
H 9.604868 27.605904 42.652980