32
H12 C20
C 21.016562 27.473021 25.749904
C 19.610660 27.463313 25.288640
C 21.921927 26.495809 25.377177
C 21.458583 28.532206 26.611222
C 19.130844 26.480709 24.448090
C 18.729441 28.489062 25.737881
H 21.603742 25.667228 24.749661
C 23.255798 26.524931 25.792533
C 20.569322 29.542315 27.070300
C 22.819857 28.545149 27.033137
C 17.799504 26.468844 24.019618
H 19.781629 25.679848 24.107935
C 17.374191 28.467490 25.300664
C 19.162275 29.510496 26.630897
H 23.925771 25.726875 25.474458
C 23.705352 27.528029 26.588268
C 21.057058 30.511437 27.922874
C 23.248687 29.583841 27.909757
H 17.476789 25.673053 23.352424
C 16.929761 27.436348 24.430602
C 16.475746 29.463038 25.754277
C 18.247481 30.455350 27.041881
H 24.741886 27.568369 26.918695
H 20.394583 31.292127 28.291776
C 22.386531 30.533009 28.355719
H 24.291897 29.577693 28.232642
H 15.884222 27.426749 24.121380
H 15.443505 29.432837 25.406908
C 16.911654 30.434856 26.610129
H 18.541423 31.246179 27.727656
H 22.710365 31.315749 29.038871
H 16.232342 31.202172 26.979796