30
H12 C18
C 13.282368 32.075864 41.500188
C 13.154592 31.115936 42.522656
C 12.395856 33.173296 41.485319
C 14.296128 31.935767 40.444974
C 12.175680 31.219712 43.493333
H 13.834339 30.268346 42.551225
C 11.419584 33.270586 42.503276
C 12.466608 34.164356 40.395688
C 15.228576 30.872063 40.454330
C 14.371104 32.886614 39.400118
H 12.084706 30.448138 44.258012
C 11.303952 32.308063 43.484980
H 10.724102 34.104815 42.512799
C 11.558448 35.243627 40.320674
C 13.430208 34.013881 39.375058
H 15.211099 30.144852 41.261278
C 16.191120 30.747532 39.475300
C 15.356880 32.725762 38.407722
H 10.520453 32.394976 44.238298
H 10.799501 35.366082 41.088862
C 11.587488 36.142586 39.281498
C 13.437072 34.954351 38.317505
H 16.913318 29.932371 39.527258
C 16.261344 31.680218 38.446148
H 15.445056 33.449340 37.601944
H 10.869408 36.960341 39.253598
C 12.537360 35.999894 38.272396
H 14.172048 34.863547 37.520748
H 17.023618 31.598106 37.674285
H 12.564552 36.707128 37.444397