30
H12 C18
H 14.748857 34.599850 36.386267
C 14.487375 34.240120 35.390706
C 13.289880 34.681819 34.783782
C 15.336035 33.375127 34.735404
C 13.028398 34.295333 33.480508
H 12.607540 35.346773 35.311542
C 15.027695 32.878217 33.433596
H 16.277717 33.101331 35.201006
H 12.143120 34.669785 32.967555
C 13.895570 33.455822 32.787090
C 15.860734 31.932529 32.710858
C 13.680368 33.208075 31.382662
C 15.688920 31.843340 31.312294
C 16.838978 31.071784 33.322180
H 12.802841 33.648358 30.910024
C 14.586877 32.495978 30.677516
C 16.601215 31.084525 30.514790
C 17.787718 30.373843 32.499754
C 16.885258 30.771655 34.725142
H 14.476731 32.358796 29.601032
H 16.440334 31.073199 29.436840
C 17.628630 30.443213 31.067472
C 18.790259 29.605118 33.080290
H 16.106771 31.148090 35.381470
C 17.874493 29.971785 35.254368
H 18.361590 29.915581 30.456150
H 19.518648 29.123356 32.425135
C 18.863150 29.415415 34.427544
H 17.883865 29.773587 36.325721
H 19.656851 28.806380 34.856789