64
H22 C42
H 9.113035 57.400861 66.358385
C 8.638680 56.441964 66.571936
C 8.163900 55.737512 65.471978
C 8.522880 56.033803 67.865095
C 7.596480 54.454278 65.672907
C 8.353040 56.164484 64.163363
C 7.955460 54.732193 68.125273
C 8.970640 56.869932 69.001118
C 7.086960 53.703847 64.637350
C 7.484540 54.027563 67.051075
C 7.843520 55.414053 63.127805
H 8.851598 57.112533 63.959600
C 7.882120 54.223991 69.506017
C 8.862560 56.325252 70.353525
C 9.464720 58.161249 68.841405
H 6.588402 52.755798 64.841112
C 7.276100 54.130820 63.328734
H 6.999801 53.063573 67.203833
C 7.955460 55.840768 61.749638
C 7.449800 52.950860 69.776498
C 8.380060 55.011163 70.567334
C 9.352780 57.125873 71.427723
H 9.522041 58.586191 67.840881
C 9.900900 58.930665 69.907875
C 6.801320 53.426367 62.228776
C 7.484540 55.136138 60.675440
H 8.440199 56.804759 61.596880
H 7.097498 52.303256 68.976903
C 7.442080 52.451632 71.069657
C 8.310580 54.488992 71.868222
C 9.287160 56.570999 72.759523
C 9.839140 58.415527 71.188154
H 10.290799 59.933879 69.742237
H 6.326965 52.467470 62.442328
C 6.917120 53.834528 60.935617
C 7.557880 55.644340 59.294696
H 7.092287 51.430336 71.234007
C 7.851240 53.214277 72.154159
C 8.816240 55.325212 72.955300
H 9.659496 57.168407 73.592606
H 10.204219 59.001032 72.034117
C 6.469360 52.998399 59.799595
C 7.059940 54.857168 58.233378
C 7.990200 56.917471 59.024215
H 7.839969 52.833435 73.173488
H 8.778566 54.907539 73.961748
C 5.975280 51.707082 59.959308
C 6.577440 53.543079 58.447187
C 7.129420 55.379339 56.932491
C 7.997920 57.416699 57.731055
H 8.342502 57.565076 59.823809
C 5.539100 50.937666 58.892838
H 5.917959 51.282140 60.959832
C 6.087220 52.742458 57.372989
C 6.623760 54.543119 55.845413
C 7.588760 56.654054 56.646553
H 8.347713 58.437995 57.566706
H 5.149201 49.934452 59.058476
C 5.600860 51.452804 57.612559
C 6.152840 53.297332 56.041190
H 6.661434 54.960792 54.838964
H 7.600031 57.034896 55.627225
H 5.235781 50.867299 56.766596
H 5.780504 52.699924 55.208107