132
H54 C78
H 41.990556 69.904697 29.794332
C 41.921255 69.968080 30.879779
C 41.813318 71.212285 31.486209
C 41.933859 68.823367 31.644230
H 41.793722 72.111977 30.872115
C 41.704249 71.322676 32.866365
C 41.834808 68.917549 33.009693
H 42.048912 67.849762 31.167035
C 41.514712 72.657150 33.523502
C 41.716691 70.155885 33.625277
H 41.876298 68.018089 33.626227
C 40.272301 72.960656 34.106085
C 42.558538 73.597570 33.578424
H 41.627053 70.223311 34.707811
C 39.146390 71.973285 34.032133
C 40.059819 74.199551 34.729980
C 42.326828 74.861617 34.158960
C 43.947183 73.250746 33.115080
C 38.442535 71.803087 32.858296
C 38.780890 71.223743 35.141052
C 38.738716 74.487406 35.378204
C 41.075691 75.168756 34.719863
C 43.412666 75.889232 34.167752
C 44.875154 72.789060 34.040926
C 44.362613 73.430167 31.801529
C 37.392568 70.893968 32.789161
H 38.701992 72.397813 31.981520
C 37.734316 70.314624 35.063366
H 39.328197 71.353515 36.075156
C 38.591514 74.350465 36.740174
C 37.639790 74.861897 34.648320
C 40.774501 76.555491 35.212595
C 43.927631 76.383337 32.973319
C 43.934741 76.372996 35.363269
H 44.564657 72.619565 35.070780
C 46.187369 72.531947 33.672490
H 43.654060 73.798446 31.058373
C 45.678545 73.180320 31.432371
H 36.839112 70.783679 31.855574
C 37.049043 70.147500 33.886518
H 37.462002 69.722966 35.938371
C 37.368008 74.558112 37.357685
H 39.455536 74.060020 37.340898
C 36.419516 75.084915 35.275346
H 37.725293 74.987021 33.568467
C 40.361494 77.519387 34.308911
C 40.875652 76.912655 36.542527
H 43.520103 76.028420 32.029392
C 44.943019 77.325713 32.973319
H 43.555087 75.990352 36.308172
C 44.935909 77.336054 35.363269
H 46.898319 72.160031 34.409756
C 46.590519 72.735961 32.367611
H 45.993434 73.338063 30.401264
H 36.245031 69.419341 33.825236
H 37.283100 74.418370 38.435810
C 36.286048 74.929808 36.614672
H 35.563871 75.403690 34.678818
H 40.254444 77.258850 33.257277
C 40.067737 78.809704 34.722633
C 40.576885 78.204370 36.958898
H 41.208421 76.173435 37.272354
H 45.350547 77.680630 32.029392
C 45.457984 77.819818 34.167752
H 45.315563 77.718698 36.308172
H 47.616408 72.519093 32.070785
H 35.319669 75.106227 37.089033
H 39.751822 79.549783 33.986706
C 40.174866 79.149261 36.049313
H 40.667851 78.465240 38.012259
C 46.543822 78.847433 34.158960
H 39.944656 80.162678 36.379546
C 46.312112 80.111480 33.578424
C 47.794959 78.540294 34.719863
C 44.923467 80.458304 33.115080
C 47.355938 81.051900 33.523502
C 48.096149 77.153559 35.212595
C 48.810831 79.509500 34.729980
C 44.508037 80.278883 31.801529
C 43.995496 80.919990 34.040926
C 47.166401 82.386374 32.866365
C 48.598349 80.748394 34.106085
C 47.994998 76.796395 36.542527
C 48.509156 76.189663 34.308911
C 50.131934 79.221644 35.378204
C 43.192105 80.528730 31.432371
H 45.216590 79.910604 31.058373
C 42.683281 81.177103 33.672490
H 44.305993 81.089485 35.070780
C 47.057332 82.496765 31.486209
C 47.153959 83.553165 33.625277
C 49.724260 81.735765 34.032133
H 47.662229 77.535615 37.272354
C 48.293765 75.504680 36.958898
C 48.802913 74.899346 34.722633
H 48.616206 76.450200 33.257277
C 51.230860 78.847153 34.648320
C 50.279136 79.358585 36.740174
H 42.877216 80.370987 30.401264
C 42.280131 80.973089 32.367611
H 41.972331 81.549019 34.409756
C 46.949395 83.740970 30.879779
H 47.076928 81.597073 30.872115
C 47.035842 84.791501 33.009693
H 47.243597 83.485739 34.707811
C 50.428115 81.905963 32.858296
C 50.089761 82.485307 35.141052
H 48.202799 75.243810 38.012259
C 48.695784 74.559789 36.049313
H 49.118828 74.159267 33.986706
H 51.145357 78.722029 33.568467
C 52.451134 78.624135 35.275346
H 49.415114 79.649030 37.340898
C 51.502642 79.150938 37.357685
H 41.254242 81.189957 32.070785
H 46.880094 83.804353 29.794332
C 46.936791 84.885683 31.644230
H 46.994352 85.690961 33.626227
H 50.168658 81.311237 31.981520
C 51.478082 82.815082 32.789161
H 49.542453 82.355535 36.075156
C 51.136334 83.394426 35.063366
H 48.925994 73.546372 36.379546
H 53.306779 78.305360 34.678818
C 52.584602 78.779242 36.614672
H 51.587550 79.290680 38.435810
H 46.821738 85.859288 31.167035
H 52.031538 82.925371 31.855574
C 51.821607 83.561550 33.886518
H 51.408648 83.986084 35.938371
H 53.550981 78.602823 37.089033
H 52.625619 84.289709 33.825236