40
H16 C24
H 33.061992 73.760484 18.541796
C 33.743977 73.249353 17.860228
C 33.818039 71.904736 17.874881
C 34.544637 74.061341 16.982763
C 33.057269 71.091838 18.877287
C 34.666893 71.208920 16.920054
C 34.445388 75.447513 16.989117
C 35.480215 73.422549 16.102438
C 31.748794 70.692972 18.655584
C 33.676722 70.700859 20.055327
C 34.676423 69.801818 16.846915
C 35.494373 71.956604 16.043094
H 33.703251 75.917154 17.638061
C 35.258709 76.260108 16.186110
C 36.310826 74.217551 15.326943
C 31.078151 69.901004 19.580987
H 31.239285 71.011313 17.746390
C 33.010708 69.910710 20.986836
H 34.705021 71.010690 20.248036
H 34.032846 69.234701 17.515554
C 35.477219 69.144524 15.945612
C 36.298165 71.246228 15.127922
C 35.180018 77.676309 16.176885
C 36.229276 75.617373 15.351577
H 37.053395 73.771606 14.665006
H 30.044782 69.610959 19.394262
C 31.717890 69.506991 20.740375
H 33.516229 69.623605 21.907650
H 35.462364 68.056234 15.903651
C 36.289587 69.870369 15.082641
H 36.933655 71.785895 14.428013
H 34.426533 78.162668 16.796092
C 36.019887 78.421263 15.401299
C 37.088614 76.432394 14.566574
H 31.203221 68.873372 21.462213
H 36.910315 69.357527 14.349671
H 35.934036 79.507330 15.400320
C 36.983919 77.791267 14.579902
H 37.829638 75.942731 13.939187
H 37.645239 78.393574 13.957041