48
H18 C30
C 20.797879 38.233500 40.616969
H 20.727365 37.479750 41.404784
C 19.693370 39.096000 40.443359
C 21.892608 38.295000 39.808352
C 18.507475 38.916000 41.211310
C 19.744214 40.101000 39.436107
H 22.727335 37.607400 39.941922
C 21.899039 39.201000 38.733846
H 18.499582 38.123850 41.958303
C 17.414123 39.654000 40.965754
C 18.635911 41.029500 39.332879
C 20.859913 40.081500 38.553979
H 22.729197 39.198900 38.028926
H 16.477883 39.476100 41.495656
C 17.455432 40.744500 40.032012
C 18.696229 42.279000 38.586824
H 20.865843 40.720200 37.676857
C 16.277503 41.544000 39.847453
C 17.489902 43.035000 38.377241
C 19.885793 42.897000 38.200503
H 15.373413 41.252850 40.380953
C 16.278800 42.612000 39.021632
C 17.513422 44.214000 37.637442
H 20.839765 42.485700 38.518162
C 19.913732 44.124000 37.524830
H 15.372990 43.200000 38.870388
H 16.578371 44.763300 37.540940
C 18.698162 44.767500 37.132252
C 21.163163 44.793000 37.323067
C 18.771559 46.015500 36.384634
H 22.077169 44.294100 37.644637
C 21.193007 46.048500 36.828826
C 17.657251 46.612500 35.666732
C 19.997637 46.686000 36.356481
H 22.127350 46.600800 36.758443
C 16.500307 45.885000 35.297615
C 17.781550 47.953500 35.210028
C 20.095372 48.015000 35.848162
H 16.422766 44.826900 35.530972
C 15.478204 46.497000 34.590661
C 16.706103 48.553500 34.537484
C 19.008752 48.645000 35.358613
H 21.064379 48.510600 35.881790
H 14.600927 45.921150 34.304752
C 15.571475 47.856000 34.241877
H 16.810125 49.591050 34.214506
H 19.070565 49.681350 35.022654
H 14.751752 48.334050 33.708847