36
H14 C22
H 12.588270 26.978869 44.899132
C 13.329036 26.790715 45.672140
C 13.536590 25.498337 46.167999
C 14.078256 27.863540 46.203417
H 12.951388 24.668787 45.772906
C 14.498427 25.272258 47.159717
C 13.870702 29.171641 45.707559
C 15.035031 27.637460 47.195135
H 14.657839 24.264582 47.539580
C 15.242585 26.333957 47.673285
H 13.110446 29.312962 44.945353
C 14.619922 30.244466 46.238836
C 15.784251 28.699159 47.708703
H 15.995653 26.161721 48.440095
C 14.422493 31.563694 45.760686
C 15.576697 30.002662 47.230553
H 16.530384 28.465851 48.459398
C 13.460656 31.821222 44.768969
C 15.176775 32.620794 46.291964
C 16.330980 31.059762 47.761831
H 12.850547 31.026123 44.352624
C 13.273351 33.109001 44.290819
C 14.984408 33.924297 45.813814
C 16.133550 32.363265 47.283681
C 17.262443 30.802234 48.753548
H 12.521852 33.301744 43.524363
C 14.027633 34.166101 44.822096
H 15.577456 34.756368 46.174374
C 16.897957 33.420366 47.814959
H 17.440535 29.805064 49.138370
C 18.036975 31.843610 49.284826
H 13.880472 35.181887 44.453390
H 16.803546 34.442806 47.467857
C 17.854732 33.147113 48.806676
H 18.782905 31.637416 50.050396
H 18.465752 33.959689 49.200530