36
H14 C22
H 10.678118 35.658804 44.684240
C 11.290932 35.982346 45.527589
C 10.889165 35.589616 46.823841
C 12.414206 36.684157 45.333936
C 9.726263 34.789976 47.003537
C 11.668774 35.969586 47.942142
H 12.770781 36.908453 44.326593
C 13.148818 37.224339 46.440025
H 9.109197 34.592335 46.126343
C 9.374436 34.302253 48.195112
C 11.424650 35.239419 49.177333
C 12.687017 36.976224 47.760702
C 14.308058 38.018307 46.232415
H 8.462319 33.722231 48.320725
C 10.246907 34.459629 49.308180
C 12.367496 35.147262 50.222360
C 13.226927 37.825486 48.812708
H 14.682912 38.131306 45.214255
C 14.956314 38.588263 47.244295
C 10.000375 33.759236 50.506733
C 12.120128 34.415677 51.356363
H 13.329542 35.641082 50.116636
C 12.552810 38.056588 50.028707
C 14.404871 38.574085 48.573695
H 15.875892 39.148294 47.074718
H 9.071567 33.191974 50.578088
C 10.903328 33.749311 51.518612
H 12.882554 34.345638 52.130450
H 11.588735 37.581199 50.191655
C 13.060083 38.880329 50.998716
C 14.927115 39.383648 49.613488
H 10.711546 33.194384 52.436282
H 12.499111 39.037563 51.919351
C 14.281544 39.524011 50.791106
H 15.849525 39.930919 49.417742
H 14.699601 40.171095 51.564496