48
H18 C30
H 2.190262 25.853786 45.408519
C 1.962527 24.822404 45.661451
C 1.405049 23.986012 44.703358
C 2.303483 24.376025 46.954857
C 1.229913 22.605397 45.031725
C 1.162889 24.442861 43.331235
C 2.051982 23.027816 47.294029
C 2.900427 25.236237 47.910635
C 0.741624 21.702557 43.993952
C 1.530418 22.171478 46.316064
C 1.106140 23.502003 42.313720
C 0.963731 25.850261 42.994958
C 2.365646 22.588055 48.616954
C 3.198276 24.773083 49.163719
H 3.102599 26.269709 47.633587
C 0.278083 20.402399 44.306499
C 0.720349 22.125263 42.652506
H 1.400635 21.123078 46.578642
C 1.450870 23.938729 40.953367
C 0.465949 26.784303 43.934336
C 1.104594 26.282711 41.651775
H 2.151689 21.553206 48.883584
C 2.923954 23.443381 49.521026
H 3.659759 25.439256 49.890874
C -0.214191 19.565532 43.346477
H 0.293004 20.070082 45.341379
C 0.174776 21.253760 41.698464
C 1.883609 23.031048 39.953408
C 1.529178 25.316004 40.653938
H 0.275886 26.453038 44.950309
C 0.161556 28.074695 43.577801
C 0.802413 27.610520 41.334597
H 3.174339 23.095250 50.523107
H -0.579153 18.575631 43.617351
C -0.284848 19.997047 42.027990
H 0.053412 21.607000 40.681142
H 1.901516 21.969112 40.169490
C 2.351536 23.465898 38.734665
C 2.006808 25.722013 39.401433
H -0.265028 28.752309 44.318075
C 0.337443 28.498688 42.265487
H 0.899510 27.939280 40.301454
H -0.737632 19.366960 41.261862
H 2.708609 22.735762 38.010597
C 2.411710 24.816005 38.451250
H 2.099439 26.786873 39.193840
H 0.078430 29.516233 41.976670
H 2.815640 25.164132 37.501067