52
H20 C32
H 24.665784 20.258503 43.681861
C 24.311234 19.313276 43.269540
C 23.229500 19.338785 42.358730
C 24.865843 18.136176 43.649044
C 22.755117 18.119216 41.811267
C 22.575367 20.545268 42.001777
C 24.429047 16.923088 43.090474
H 25.671233 18.121066 44.381294
C 21.615487 18.149430 40.968953
C 23.419657 16.895726 42.156944
C 21.491208 20.535728 41.181004
H 22.946588 21.484170 42.416791
H 24.922324 15.993027 43.370012
H 21.227494 17.211431 40.574639
C 20.995102 19.324946 40.672586
C 23.074202 15.645638 41.439000
H 20.983179 21.466403 40.936136
H 20.111305 19.326446 40.033740
C 22.555664 14.482127 41.934964
C 23.329126 15.472950 39.987459
C 22.416835 13.516010 40.814795
C 22.084616 14.237393 43.317840
C 22.912740 14.172490 39.665512
C 23.821898 16.263441 38.982236
C 21.901329 12.256528 40.660133
C 21.142014 15.066079 43.873885
C 22.580520 13.127534 44.086273
C 22.934665 13.625346 38.381256
C 23.876762 15.729262 37.669707
H 24.167151 17.280611 39.160460
C 21.894459 11.677874 39.366789
H 21.485651 11.698849 41.500259
C 20.644998 14.840403 45.169585
H 20.758264 15.903534 43.294111
C 22.061983 12.911090 45.392576
C 23.591324 12.264526 43.612019
C 22.383391 12.322275 38.261599
C 23.456335 14.464306 37.363579
H 24.255056 16.370411 36.872664
H 21.485449 10.676905 39.244775
H 19.906901 15.525407 45.579551
C 21.083310 13.788482 45.905369
C 22.553138 11.815542 46.143169
C 24.036406 11.223179 44.370523
H 24.030242 12.446392 42.634228
H 22.336610 11.840689 37.286332
H 23.522213 14.096748 36.340180
H 20.707441 13.620298 46.914968
H 22.154637 11.658329 47.146710
C 23.507966 10.991927 45.649561
H 24.827448 10.579903 43.980753
H 23.871811 10.156316 46.246334