48
H16 C32
H 8.849423 21.765666 34.537102
C 8.565269 21.176515 35.406121
C 8.133120 21.871335 36.552872
C 8.654602 19.782668 35.346036
C 7.766685 21.150440 37.673504
H 8.109424 22.957337 36.538742
C 8.268134 19.030492 36.499209
C 9.121943 19.036869 34.176878
C 7.242445 21.473704 39.007503
C 7.848912 19.743138 37.618129
C 8.268978 17.600537 36.588694
C 9.104091 17.609655 34.254946
C 9.585879 19.623211 32.998159
C 7.028685 20.248905 39.710111
C 6.918865 22.688461 39.600074
C 7.427179 19.140406 38.826677
C 7.882934 17.017827 37.798384
C 8.685454 16.852192 35.402838
C 9.526715 16.897794 33.142591
C 10.034776 18.870570 31.885804
H 9.604965 20.708151 32.908245
C 6.485111 20.264184 40.986022
C 6.379576 22.683892 40.885262
H 7.079582 23.628816 39.075437
C 7.456083 17.765167 38.918874
H 7.880989 15.933700 37.888868
C 8.722893 15.461363 35.324200
C 9.552143 15.485776 33.066521
C 10.002678 17.494244 31.951454
H 10.396524 19.395620 31.004511
H 6.302413 19.332018 41.521934
C 6.162352 21.490838 41.566034
H 6.130825 23.632684 41.361232
H 7.132367 17.238594 39.814581
H 8.400764 14.869157 36.177234
C 9.145484 14.766822 34.166032
C 10.052126 15.152893 31.720820
C 10.346490 16.378302 31.047470
H 5.735525 21.510437 42.568638
H 9.121613 13.680507 34.165033
C 10.254284 13.931576 31.095138
C 10.847378 16.350013 29.747010
H 10.028212 12.995377 31.603504
C 10.743118 13.928602 29.788256
C 11.034706 15.112982 29.126181
H 11.095494 17.270462 29.223373
H 10.902850 12.973597 29.285598
H 11.402683 15.084832 28.100599