70
H28 C42
H 22.077488 26.432527 38.760687
C 22.025375 26.165430 37.704541
C 20.995518 26.665605 36.916026
C 22.993388 25.330826 37.162711
C 20.924404 26.323076 35.575834
H 20.249847 27.327982 37.350303
C 22.898827 24.973009 35.813764
C 24.052792 24.771622 38.058152
H 20.118771 26.717850 34.958029
C 21.871678 25.473690 35.030409
H 23.648672 24.310935 35.380738
C 23.850206 23.475623 38.553709
C 25.149318 25.557221 38.520568
H 21.815835 25.181280 33.982861
C 22.795345 22.633324 38.062061
C 24.664246 22.978890 39.630334
C 25.951824 25.067779 39.642997
C 25.477172 26.814746 37.931371
C 22.614919 21.372457 38.534325
H 22.142606 23.021111 37.283708
C 24.405513 21.653224 40.117919
C 25.623970 23.810254 40.232194
C 27.048350 25.853378 40.105413
C 25.035956 27.194636 36.543812
C 26.436896 27.646110 38.533231
H 21.827108 20.744302 38.121309
C 23.445256 20.865398 39.567647
H 25.014430 21.273232 40.934103
C 26.065187 23.430364 41.619753
C 28.107754 25.294174 41.000854
C 27.250936 27.149377 39.609856
C 24.056675 28.137982 36.252418
C 25.734929 26.611740 35.487822
C 26.695629 28.971776 38.045646
H 23.303102 19.848645 39.933140
C 25.366213 24.013260 42.675743
C 27.044467 22.487018 41.911147
C 29.075767 24.459570 40.459025
C 28.202315 25.651991 42.349801
C 28.305798 27.991676 40.101504
C 23.759263 28.458236 34.934267
H 23.502095 28.611225 37.062349
C 25.452951 26.954269 34.171704
H 26.500131 25.868666 35.705117
H 26.086712 29.351767 37.229462
C 27.655886 29.759603 38.595918
H 24.601011 24.756334 42.458449
C 25.648191 23.670731 43.991861
H 27.599047 22.013775 41.101216
C 27.341879 22.166764 43.229298
H 29.023654 24.192473 39.402878
C 30.105625 23.959395 41.247539
H 27.452470 26.314065 42.782827
C 29.229464 25.151310 43.133156
H 28.958536 27.603889 40.879857
C 28.486223 29.252543 39.629240
H 22.963908 29.170935 34.722132
C 24.462614 27.874327 33.893129
H 26.018490 26.490544 33.364899
H 27.798040 30.776355 38.230425
H 25.082652 24.134456 44.798666
C 26.638528 22.750673 44.270436
H 28.137234 21.454065 43.441434
H 30.851296 23.297017 40.813262
C 30.176738 24.301924 42.587731
H 29.285308 25.443720 44.180705
H 29.274034 29.880697 40.042256
H 24.239318 28.146386 32.860901
H 26.861824 22.478614 45.302664
H 30.982371 23.907150 43.205536