34
H12 C22
H 19.669037 28.957069 28.823969
C 18.638464 28.602608 28.803060
C 18.181955 27.772673 29.806920
C 17.820605 29.005984 27.738612
C 16.835051 27.302068 29.796228
H 18.837099 27.477328 30.627353
C 16.486926 28.552765 27.692280
C 18.283690 29.838237 26.720496
C 16.343804 26.466337 30.802464
C 15.975704 27.698489 28.729404
C 15.632748 28.941073 26.655156
C 17.446917 30.235817 25.665552
H 19.318564 30.183772 26.756017
C 15.009310 26.011960 30.771576
H 16.993764 26.181192 31.627174
C 14.635622 27.241793 28.699704
C 14.234466 28.463513 26.624268
C 16.115389 29.781440 25.632288
H 17.813880 30.889333 24.876007
H 14.636612 25.376295 31.572644
C 14.151746 26.389835 29.734452
C 13.752986 27.621987 27.640008
C 13.382266 28.851820 25.570512
H 15.482754 30.102865 24.810905
C 12.798583 25.941253 29.683368
C 12.420643 27.166450 27.615060
C 12.050565 28.398602 25.539624
H 13.731251 29.493281 24.768612
H 12.432308 25.295040 30.479922
C 11.965694 26.326083 28.648620
C 11.586541 27.559394 26.567244
H 11.389065 28.702061 24.729646
H 10.927993 25.992834 28.638047
H 10.551822 27.212815 26.563442