50
H20 C30
H 5.270799 15.251363 26.862410
C 6.100544 14.943637 27.497072
C 6.188451 13.618835 27.911558
C 7.050463 15.851092 27.894597
H 5.428049 12.906060 27.595552
C 7.228205 13.192835 28.724629
H 6.987751 16.893468 27.580075
C 8.074640 15.450140 28.717209
C 7.353723 11.749323 29.120034
C 8.164894 14.124699 29.136995
H 8.820278 16.170269 29.051024
C 6.809013 11.297289 30.340171
C 8.026017 10.857088 28.274101
H 8.969496 13.806685 29.799537
C 6.139755 12.184743 31.227447
C 6.935768 9.902717 30.709074
C 8.088523 9.455221 28.606962
C 8.662533 11.291241 27.067745
C 5.659847 11.758989 32.476205
H 6.027158 13.226247 30.936352
C 6.445613 9.483458 31.983274
C 7.543919 8.995445 29.815438
C 8.708791 8.563461 27.670923
C 9.283618 10.416169 26.239833
H 8.667154 12.354734 26.836862
C 5.030575 12.652571 33.386803
C 5.830228 10.388186 32.865250
H 6.557099 8.441047 32.273627
C 7.601883 7.532448 30.134518
H 8.701683 7.498101 27.891947
C 9.277957 9.021161 26.531351
H 9.786158 10.772423 25.342380
C 4.598678 12.228543 34.600579
H 4.907486 13.694112 33.085744
C 5.351483 9.984250 34.146871
C 6.483454 6.740948 29.997769
C 8.782146 6.930570 30.518262
H 9.737490 8.326936 25.828951
H 4.124270 12.919534 35.298421
C 4.760482 10.867432 34.988564
H 5.471120 8.940838 34.441039
H 5.540589 7.202421 29.708053
C 6.547020 5.378230 30.226744
C 8.839149 5.556784 30.749357
H 9.679780 7.536200 30.618862
H 4.400763 10.553305 35.967005
H 5.644234 4.778539 30.127415
C 7.726238 4.785309 30.605188
H 9.794404 5.107814 31.021264
H 7.768373 3.710562 30.778720